3KK6_CEL_A_701
 OpenBabel02011916343D
Coordinates from PDB:3KK6:A:701 Model:1 without hydrogens
 40 42  0  0  0  0  0  0  0  0999 V2000
  -32.3930   42.0950  -10.6380 S   0  0  0  0  0  0  0  0  0  0  0  0
  -32.2740   42.1500   -8.8570 C   0  0  0  0  0  0  0  0  0  0  0  0
  -33.2030   42.7870   -8.1280 C   0  0  0  0  0  0  0  0  0  0  0  0
  -33.0810   42.8110   -6.7440 C   0  0  0  0  0  0  0  0  0  0  0  0
  -32.0330   42.1170   -6.1140 C   0  0  0  0  0  0  0  0  0  0  0  0
  -31.1810   41.3350   -6.8490 C   0  0  0  0  0  0  0  0  0  0  0  0
  -31.2210   41.3910   -8.1900 C   0  0  0  0  0  0  0  0  0  0  0  0
  -31.9940   41.9580   -4.7100 N   0  0  0  0  0  0  0  0  0  0  0  0
  -32.1180   42.8540   -3.7880 C   0  0  0  0  0  0  0  0  0  0  0  0
  -32.3290   44.3210   -3.9500 C   0  0  0  0  0  0  0  0  0  0  0  0
  -33.3770   44.8620   -3.3430 C   0  0  0  0  0  0  0  0  0  0  0  0
  -33.6310   46.2140   -3.4510 C   0  0  0  0  0  0  0  0  0  0  0  0
  -32.7670   47.0200   -4.1940 C   0  0  0  0  0  0  0  0  0  0  0  0
  -33.0600   48.4890   -4.2850 C   0  0  0  0  0  0  0  0  0  0  0  0
  -31.6680   46.4570   -4.8230 C   0  0  0  0  0  0  0  0  0  0  0  0
  -31.4260   45.1440   -4.7240 C   0  0  0  0  0  0  0  0  0  0  0  0
  -32.0280   42.1980   -2.5380 C   0  0  0  0  0  0  0  0  0  0  0  0
  -31.8540   40.9250   -2.7710 C   0  0  0  0  0  0  0  0  0  0  0  0
  -31.7000   39.8570   -1.7520 C   0  0  0  0  0  0  0  0  0  0  0  0
  -32.5930   39.9530   -0.7850 F   0  0  0  0  0  0  0  0  0  0  0  0
  -30.4870   39.9270   -1.2450 F   0  0  0  0  0  0  0  0  0  0  0  0
  -31.8660   38.6780   -2.3110 F   0  0  0  0  0  0  0  0  0  0  0  0
  -31.8210   40.7400   -4.1100 N   0  0  0  0  0  0  0  0  0  0  0  0
  -33.9980   42.3520  -11.0370 N   0  0  0  0  0  0  0  0  0  0  0  0
  -31.3540   43.1670  -11.2450 O   0  0  0  0  0  0  0  0  0  0  0  0
  -32.0290   40.6090  -11.1630 O   0  0  0  0  0  0  0  0  0  0  0  0
  -33.9991   43.2538   -8.5899 H   0  0  0  0  0  0  0  0  0  0  0  0
  -33.7618   43.3399   -6.1767 H   0  0  0  0  0  0  0  0  0  0  0  0
  -30.5130   40.7072   -6.3750 H   0  0  0  0  0  0  0  0  0  0  0  0
  -30.5074   40.8975   -8.7488 H   0  0  0  0  0  0  0  0  0  0  0  0
  -34.0083   44.2662   -2.7848 H   0  0  0  0  0  0  0  0  0  0  0  0
  -34.4545   46.6265   -2.9854 H   0  0  0  0  0  0  0  0  0  0  0  0
  -33.9481   48.7105   -3.7309 H   0  0  0  0  0  0  0  0  0  0  0  0
  -33.2018   48.7616   -5.3099 H   0  0  0  0  0  0  0  0  0  0  0  0
  -32.2390   49.0423   -3.8791 H   0  0  0  0  0  0  0  0  0  0  0  0
  -31.0309   47.0548   -5.3723 H   0  0  0  0  0  0  0  0  0  0  0  0
  -30.6075   44.7254   -5.1929 H   0  0  0  0  0  0  0  0  0  0  0  0
  -32.0889   42.6447   -1.6097 H   0  0  0  0  0  0  0  0  0  0  0  0
  -34.2810   43.2814  -10.7262 H   0  0  0  0  0  0  0  0  0  0  0  0
  -34.5788   41.6491  -10.5798 H   0  0  0  0  0  0  0  0  0  0  0  0
  1  2  1  0  0  0  0
  1 24  1  0  0  0  0
  1 25  2  0  0  0  0
  1 26  2  0  0  0  0
  2  3  2  0  0  0  0
  2  7  1  0  0  0  0
  3  4  1  0  0  0  0
  3 27  1  0  0  0  0
  4  5  2  0  0  0  0
  4 28  1  0  0  0  0
  5  6  1  0  0  0  0
  5  8  1  0  0  0  0
  6  7  2  0  0  0  0
  6 29  1  0  0  0  0
  7 30  1  0  0  0  0
  8  9  1  0  0  0  0
  8 23  1  0  0  0  0
  9 10  1  0  0  0  0
  9 17  2  0  0  0  0
 10 11  2  0  0  0  0
 10 16  1  0  0  0  0
 11 12  1  0  0  0  0
 11 31  1  0  0  0  0
 12 13  2  0  0  0  0
 12 32  1  0  0  0  0
 13 14  1  0  0  0  0
 13 15  1  0  0  0  0
 14 33  1  0  0  0  0
 14 34  1  0  0  0  0
 14 35  1  0  0  0  0
 15 16  2  0  0  0  0
 15 36  1  0  0  0  0
 16 37  1  0  0  0  0
 17 18  1  0  0  0  0
 17 38  1  0  0  0  0
 18 19  1  0  0  0  0
 18 23  2  0  0  0  0
 19 20  1  0  0  0  0
 19 21  1  0  0  0  0
 19 22  1  0  0  0  0
 24 39  1  0  0  0  0
 24 40  1  0  0  0  0
A    1
S1
A    2
C15
A    3
C14
A    4
C13
A    5
C12
A    6
C17
A    7
C16
A    8
N2
A    9
C3
A   10
C5
A   11
C10
A   12
C9
A   13
C8
A   14
C11
A   15
C7
A   16
C6
A   17
C2
A   18
C1
A   19
C4
A   20
F3
A   21
F2
A   22
F1
A   23
N1
A   24
N3
A   25
O2
A   26
O1
M  END
>  <InstanceId>
3KK6_CEL_A_701

>  <ChemCompId>
CEL

>  <PdbId>
3KK6

>  <ChainId>
A

>  <ResidueNumber>
701

>  <InsertionCode>


>  <Model>
1

>  <AltIds>


>  <MissingHeavyAtoms>
0

>  <ObservedFormula>
C17 N3 O2 S F3

>  <Name>
4-[5-(4-METHYLPHENYL)-3-(TRIFLUOROMETHYL)-1H-PYRAZOL-1-YL]BENZENESULFONAMIDE

>  <SystematicName>
4-[5-(4-methylphenyl)-3-(trifluoromethyl)pyrazol-1-yl]benzenesulfonamide

>  <Synonyms>
CELECOXIB

>  <Type>
NON-POLYMER

>  <Formula>
C17 H14 F3 N3 O2 S

>  <MolecularWeight>
381.372

>  <ModifiedDate>
2011-06-04

>  <Parent>


>  <OneLetterCode>


>  <SubcomponentList>


>  <AmbiguousFlag>
N

>  <InChI>
InChI=1S/C17H14F3N3O2S/c1-11-2-4-12(5-3-11)15-10-16(17(18,19)20)22-23(15)13-6-8-14(9-7-13)26(21,24)25/h2-10H,1H3,(H2,21,24,25)

>  <InChIKey>
RZEKVGVHFLEQIL-UHFFFAOYSA-N

>  <SMILES>
Cc1ccc(cc1)c2cc(nn2c3ccc(cc3)S(=O)(=O)N)C(F)(F)F

$$$$
3KK6_CEL_B_1701
 OpenBabel02011916343D
Coordinates from PDB:3KK6:B:1701 Model:1 without hydrogens
 40 42  0  0  0  0  0  0  0  0999 V2000
  -19.4390   49.4610   46.5900 S   0  0  0  0  0  0  0  0  0  0  0  0
  -19.1910   49.5590   44.7030 C   0  0  0  0  0  0  0  0  0  0  0  0
  -19.2450   50.6820   43.9710 C   0  0  0  0  0  0  0  0  0  0  0  0
  -19.3220   50.5870   42.5860 C   0  0  0  0  0  0  0  0  0  0  0  0
  -19.2730   49.3300   41.9600 C   0  0  0  0  0  0  0  0  0  0  0  0
  -19.0550   48.1970   42.6990 C   0  0  0  0  0  0  0  0  0  0  0  0
  -19.0890   48.2630   44.0390 C   0  0  0  0  0  0  0  0  0  0  0  0
  -19.1510   49.2100   40.5570 N   0  0  0  0  0  0  0  0  0  0  0  0
  -19.8450   49.7810   39.6300 C   0  0  0  0  0  0  0  0  0  0  0  0
  -20.9880   50.7270   39.7830 C   0  0  0  0  0  0  0  0  0  0  0  0
  -20.8990   51.9020   39.1740 C   0  0  0  0  0  0  0  0  0  0  0  0
  -21.9210   52.8240   39.2740 C   0  0  0  0  0  0  0  0  0  0  0  0
  -23.0630   52.5090   40.0120 C   0  0  0  0  0  0  0  0  0  0  0  0
  -24.1640   53.5260   40.0940 C   0  0  0  0  0  0  0  0  0  0  0  0
  -23.1590   51.2790   40.6430 C   0  0  0  0  0  0  0  0  0  0  0  0
  -22.1650   50.3880   40.5520 C   0  0  0  0  0  0  0  0  0  0  0  0
  -19.3260   49.3590   38.3830 C   0  0  0  0  0  0  0  0  0  0  0  0
  -18.3320   48.5470   38.6240 C   0  0  0  0  0  0  0  0  0  0  0  0
  -17.4960   47.8560   37.6110 C   0  0  0  0  0  0  0  0  0  0  0  0
  -17.1070   48.6660   36.6440 F   0  0  0  0  0  0  0  0  0  0  0  0
  -18.1860   46.8560   37.1030 F   0  0  0  0  0  0  0  0  0  0  0  0
  -16.4060   47.3840   38.1770 F   0  0  0  0  0  0  0  0  0  0  0  0
  -18.1990   48.4260   39.9640 N   0  0  0  0  0  0  0  0  0  0  0  0
  -18.3080   50.5290   47.1870 N   0  0  0  0  0  0  0  0  0  0  0  0
  -19.1650   48.0450   47.2830 O   0  0  0  0  0  0  0  0  0  0  0  0
  -20.9330   50.0140   46.8580 O   0  0  0  0  0  0  0  0  0  0  0  0
  -19.2296   51.6058   44.4307 H   0  0  0  0  0  0  0  0  0  0  0  0
  -19.4154   51.4423   42.0161 H   0  0  0  0  0  0  0  0  0  0  0  0
  -18.8658   47.2984   42.2281 H   0  0  0  0  0  0  0  0  0  0  0  0
  -19.0431   47.3979   44.5998 H   0  0  0  0  0  0  0  0  0  0  0  0
  -20.0580   52.1287   38.6205 H   0  0  0  0  0  0  0  0  0  0  0  0
  -21.8414   53.7404   38.8061 H   0  0  0  0  0  0  0  0  0  0  0  0
  -23.8862   54.3979   39.5394 H   0  0  0  0  0  0  0  0  0  0  0  0
  -24.3287   53.7917   41.1173 H   0  0  0  0  0  0  0  0  0  0  0  0
  -25.0619   53.1134   39.6837 H   0  0  0  0  0  0  0  0  0  0  0  0
  -24.0045   51.0482   41.1878 H   0  0  0  0  0  0  0  0  0  0  0  0
  -22.2371   49.4728   41.0234 H   0  0  0  0  0  0  0  0  0  0  0  0
  -19.6705   49.6416   37.4521 H   0  0  0  0  0  0  0  0  0  0  0  0
  -17.3712   50.1662   47.0103 H   0  0  0  0  0  0  0  0  0  0  0  0
  -18.4447   50.6428   48.1914 H   0  0  0  0  0  0  0  0  0  0  0  0
  1  2  1  0  0  0  0
  1 24  1  0  0  0  0
  1 25  2  0  0  0  0
  1 26  2  0  0  0  0
  2  3  2  0  0  0  0
  2  7  1  0  0  0  0
  3  4  1  0  0  0  0
  3 27  1  0  0  0  0
  4  5  2  0  0  0  0
  4 28  1  0  0  0  0
  5  6  1  0  0  0  0
  5  8  1  0  0  0  0
  6  7  2  0  0  0  0
  6 29  1  0  0  0  0
  7 30  1  0  0  0  0
  8  9  1  0  0  0  0
  8 23  1  0  0  0  0
  9 10  1  0  0  0  0
  9 17  2  0  0  0  0
 10 11  2  0  0  0  0
 10 16  1  0  0  0  0
 11 12  1  0  0  0  0
 11 31  1  0  0  0  0
 12 13  2  0  0  0  0
 12 32  1  0  0  0  0
 13 14  1  0  0  0  0
 13 15  1  0  0  0  0
 14 33  1  0  0  0  0
 14 34  1  0  0  0  0
 14 35  1  0  0  0  0
 15 16  2  0  0  0  0
 15 36  1  0  0  0  0
 16 37  1  0  0  0  0
 17 18  1  0  0  0  0
 17 38  1  0  0  0  0
 18 19  1  0  0  0  0
 18 23  2  0  0  0  0
 19 20  1  0  0  0  0
 19 21  1  0  0  0  0
 19 22  1  0  0  0  0
 24 39  1  0  0  0  0
 24 40  1  0  0  0  0
A    1
S1
A    2
C15
A    3
C14
A    4
C13
A    5
C12
A    6
C17
A    7
C16
A    8
N2
A    9
C3
A   10
C5
A   11
C10
A   12
C9
A   13
C8
A   14
C11
A   15
C7
A   16
C6
A   17
C2
A   18
C1
A   19
C4
A   20
F3
A   21
F2
A   22
F1
A   23
N1
A   24
N3
A   25
O2
A   26
O1
M  END
>  <InstanceId>
3KK6_CEL_B_1701

>  <ChemCompId>
CEL

>  <PdbId>
3KK6

>  <ChainId>
B

>  <ResidueNumber>
1701

>  <InsertionCode>


>  <Model>
1

>  <AltIds>


>  <MissingHeavyAtoms>
0

>  <ObservedFormula>
C17 N3 O2 S F3

>  <Name>
4-[5-(4-METHYLPHENYL)-3-(TRIFLUOROMETHYL)-1H-PYRAZOL-1-YL]BENZENESULFONAMIDE

>  <SystematicName>
4-[5-(4-methylphenyl)-3-(trifluoromethyl)pyrazol-1-yl]benzenesulfonamide

>  <Synonyms>
CELECOXIB

>  <Type>
NON-POLYMER

>  <Formula>
C17 H14 F3 N3 O2 S

>  <MolecularWeight>
381.372

>  <ModifiedDate>
2011-06-04

>  <Parent>


>  <OneLetterCode>


>  <SubcomponentList>


>  <AmbiguousFlag>
N

>  <InChI>
InChI=1S/C17H14F3N3O2S/c1-11-2-4-12(5-3-11)15-10-16(17(18,19)20)22-23(15)13-6-8-14(9-7-13)26(21,24)25/h2-10H,1H3,(H2,21,24,25)

>  <InChIKey>
RZEKVGVHFLEQIL-UHFFFAOYSA-N

>  <SMILES>
Cc1ccc(cc1)c2cc(nn2c3ccc(cc3)S(=O)(=O)N)C(F)(F)F

$$$$
